Vclock clock 0 pulse(0 3.3 500p 1.000E-10 1.000E-10 4.5000E-10 1.0E-9)

Vd[3] d[3] 0 PWL
+ 0 0.0
+ 8.0000E-9 0.0
+ 8.2000E-9 3.3

Vd[2] d[2] 0 PWL
+ 0 0.0
+ 4.0000E-9 0.0
+ 4.2000E-9 3.3
+ 8.0000E-9 3.3
+ 8.2000E-9 0.0
+ 1.20000E-8 0.0
+ 1.22000E-8 3.3

Vd[1] d[1] 0 PWL
+ 0 0.0
+ 2.0000E-9 0.0
+ 2.2000E-9 3.3
+ 4.0000E-9 3.3
+ 4.2000E-9 0.0
+ 6.0000E-9 0.0
+ 6.2000E-9 3.3
+ 8.0000E-9 3.3
+ 8.2000E-9 0.0
+ 1.00000E-8 0.0
+ 1.02000E-8 3.3
+ 1.20000E-8 3.3
+ 1.22000E-8 0.0
+ 1.40000E-8 0.0
+ 1.42000E-8 3.3

Vd[0] d[0] 0 PWL
+ 0 0.0
+ 1.0000E-9 0.0
+ 1.2000E-9 3.3
+ 2.0000E-9 3.3
+ 2.2000E-9 0.0
+ 3.0000E-9 0.0
+ 3.2000E-9 3.3
+ 4.0000E-9 3.3
+ 4.2000E-9 0.0
+ 5.0000E-9 0.0
+ 5.2000E-9 3.3
+ 6.0000E-9 3.3
+ 6.2000E-9 0.0
+ 7.0000E-9 0.0
+ 7.2000E-9 3.3
+ 8.0000E-9 3.3
+ 8.2000E-9 0.0
+ 9.0000E-9 0.0
+ 9.2000E-9 3.3
+ 1.00000E-8 3.3
+ 1.02000E-8 0.0
+ 1.10000E-8 0.0
+ 1.12000E-8 3.3
+ 1.20000E-8 3.3
+ 1.22000E-8 0.0
+ 1.30000E-8 0.0
+ 1.32000E-8 3.3
+ 1.40000E-8 3.3
+ 1.42000E-8 0.0

Va[7] a[7] 0 PWL
+ 0 0.0

Va[6] a[6] 0 PWL
+ 0 0.0

Va[5] a[5] 0 PWL
+ 0 0.0

Va[4] a[4] 0 PWL
+ 0 0.0

Va[3] a[3] 0 PWL
+ 0 0.0
+ 8.0000E-9 0.0
+ 8.2000E-9 3.3

Va[2] a[2] 0 PWL
+ 0 0.0
+ 4.0000E-9 0.0
+ 4.2000E-9 3.3
+ 8.0000E-9 3.3
+ 8.2000E-9 0.0
+ 1.20000E-8 0.0
+ 1.22000E-8 3.3

Va[1] a[1] 0 PWL
+ 0 0.0
+ 2.0000E-9 0.0
+ 2.2000E-9 3.3
+ 4.0000E-9 3.3
+ 4.2000E-9 0.0
+ 6.0000E-9 0.0
+ 6.2000E-9 3.3
+ 8.0000E-9 3.3
+ 8.2000E-9 0.0
+ 1.00000E-8 0.0
+ 1.02000E-8 3.3
+ 1.20000E-8 3.3
+ 1.22000E-8 0.0
+ 1.40000E-8 0.0
+ 1.42000E-8 3.3

Va[0] a[0] 0 PWL
+ 0 0.0
+ 1.0000E-9 0.0
+ 1.2000E-9 3.3
+ 2.0000E-9 3.3
+ 2.2000E-9 0.0
+ 3.0000E-9 0.0
+ 3.2000E-9 3.3
+ 4.0000E-9 3.3
+ 4.2000E-9 0.0
+ 5.0000E-9 0.0
+ 5.2000E-9 3.3
+ 6.0000E-9 3.3
+ 6.2000E-9 0.0
+ 7.0000E-9 0.0
+ 7.2000E-9 3.3
+ 8.0000E-9 3.3
+ 8.2000E-9 0.0
+ 9.0000E-9 0.0
+ 9.2000E-9 3.3
+ 1.00000E-8 3.3
+ 1.02000E-8 0.0
+ 1.10000E-8 0.0
+ 1.12000E-8 3.3
+ 1.20000E-8 3.3
+ 1.22000E-8 0.0
+ 1.30000E-8 0.0
+ 1.32000E-8 3.3
+ 1.40000E-8 3.3
+ 1.42000E-8 0.0

Voe oe 0 PWL
+ 0 3.3

Vwe we 0 PWL
+ 0 0.0

Vcs cs 0 PWL
+ 0 0.0

.tran 15n
